<edges>
    <edge id="edge0" from="junction0" to="junction1" numLanes="1" speed="13.89"/>
    <edge id="edge1" from="junction1" to="junction0" numLanes="1" speed="13.89"/>
</edges>